6
PF5
P        0.000000000      0.000000000      0.000000000
F       -0.821240863      1.422389999      0.010786816
F        1.537000000      0.000000000      0.000000000
F       -0.821240863     -1.422389999      0.010786816
F        0.000000000      0.000000000      1.600000000
F        0.000000000      0.000000000     -1.600000000
