6
PF5
P        0.000000000      0.000000000      0.000000000
F       -0.821254204      1.422411655      0.010976620
F        1.537000000      0.000000000      0.000000000
F       -0.821240863     -1.422389999      0.010786816
F       -0.000030000     -0.000044000      1.620866000
F        0.000000000      0.000000000     -1.600000000
